# Calculation of the high-spin solution for the full oxo-bridged diMoly compound
! RKS RIJCOSX B3LYP TightOpt def2-SVP def2/J NumFreq NormalPrint Grid5 NoFinalGrid CPCM TightSCF printbasis SlowConv PAL16
%basis
	newgto Ru "def2-TZVP(-f)" end
	newgto Cl "def2-TZVP(-f)" end
	newgto O "def2-TZVP(-f)" end
end
%cpcm
	smd true
	solvent "CH2Cl2"
end
%scf
	maxiter 1500 # Here setting MaxIter to a very high number. ended for systems that require high numbers of iterations before converging
	DIISMaxEq 30 # Default value is 5. A value of 15-40 is necessary for difficult systems
	directresetfreq 1 # Default value is 15. A value of 1 (very expensive) is sometimes require.
	SOSCFStart 0.00033 # Default value of orbital gradient is 0.0033. Here reduced by a factor of 10.
end
%output
	print[p_mos] true
	print[p_basis] 10
end

* xyz 0 1
  Ru        4.74244        6.78514        3.08120
   O        2.70060        8.09614        3.39788
   N        3.48313        5.18206        5.44637
   N        5.41331        6.10273        5.89442
   O        5.64399        8.36730        4.13680
   O        7.01263        9.23403        5.67192
   C        6.41891        8.27768        5.16157
   C        6.64284        6.87770        5.75693
   H        7.35911        6.33366        5.12035
   H        7.09590        6.98215        6.74774
   C        4.47637        5.96169        4.91577
   C        3.80102        4.82167        6.76137
   C        5.04059        5.41581        7.04918
   C        5.65806        5.24356        8.29260
   H        6.62090        5.70096        8.52659
   C        4.98832        4.45383        9.23062
   H        5.44353        4.29064       10.21069
   C        3.74442        3.85937        8.94002
   H        3.25260        3.24798        9.70048
   C        3.12713        4.03492        7.69893
   H        2.16419        3.57545        7.47054
   C        2.24025        4.78639        4.83283
   C        1.10124        5.57345        5.03610
   H        1.18541        6.50205        5.60083
   C       -0.13096        5.17316        4.50707
   C       -0.18691        3.97464        3.77097
   H       -1.14490        3.65867        3.34534
   C        0.94171        3.16806        3.57278
   C        2.16537        3.58577        4.12719
   H        3.05646        2.96190        4.02036
   C       -1.36997        6.00984        4.71252
   H       -2.18331        5.41717        5.16385
   H       -1.75336        6.40127        3.75401
   H       -1.17108        6.87055        5.36812
   C        0.86643        1.87410        2.79891
   H       -0.15180        1.67772        2.43017
   H        1.17442        1.01982        3.42567
   H        1.54111        1.88693        1.92628
   C        4.72732        4.85296        2.03468
   C        6.09348        5.13868        2.37243
   C        6.59865        6.39737        1.96261
   H        7.59706        6.70571        2.28094
   C        5.85546        7.26865        1.09209
   H        6.31673        8.20667        0.78415
   C        4.54219        6.96363        0.72241
   C        3.95698        5.76553        1.28431
   H        2.90544        5.54154        1.09756
   C        6.93347        4.14796        3.12973
   H        6.33214        3.54818        3.82929
   H        7.74361        4.63924        3.68802
   H        7.40364        3.44573        2.41901
   C        3.69175        7.84484       -0.17677
   H        2.72289        7.95670        0.34008
   C        3.43305        7.11943       -1.51473
   H        4.37533        6.93677       -2.05838
   H        2.78410        7.73143       -2.16147
   H        2.93504        6.14712       -1.37047
   C        4.26202        9.24763       -0.40901
   H        4.45249        9.77499        0.53872
   H        3.54543        9.85079       -0.98818
   H        5.20395        9.22364       -0.98268
   H        4.26649        3.93499        2.39909
   O        2.77115        8.91282        4.71923
   H        3.57709        8.75893        5.47689
*

